// This file is to define the parameters of secondary distribution transformers, including the three-phase transformers and single-phase center-tapped transformers.

//***************************************************************************************//
//                                             Feeder A
//***************************************************************************************//
//---------------------------------------------------------//  
//      	     Transformer at bus 1003
//---------------------------------------------------------//

New Transformer.T_1003 Phases=3 Windings=2 XHL=3.87                        ! Three-phase transformer name, number of phases, number of windings, percent reactance high-to-low
~ wdg=1 bus=bus1003.1.2.3.0     conn=wye kV=13.8  kva=112.5 %R=1.215       ! Winding number, bus, connection, voltage rating, kVA rating, percent resistance
~ wdg=2 bus=T_bus1003_L.1.2.3.0 conn=wye kV=0.208 kva=112.5 %R=1.215

//---------------------------------------------------------//
//      	     Transformer at bus 1004
//---------------------------------------------------------//

New Transformer.T_1004 Phases=3 Windings=2 XHL=1.91
~ wdg=1 bus=bus1004.1.2.3.0     conn=wye kV=13.8  kva=75 %R=1.135
~ wdg=2 bus=T_bus1004_L.1.2.3.0 conn=wye kV=0.208 kva=75 %R=1.135


//---------------------------------------------------------//
//      	     Transformer at bus 1005
//---------------------------------------------------------//

New Transformer.T_1005 Phases=3 Windings=2 XHL=1.91
~ wdg=1 bus=bus1005.1.2.3.0     conn=wye kV=13.8  kva=75 %R=1.135
~ wdg=2 bus=T_bus1005_L.1.2.3.0 conn=wye kV=0.208 kva=75 %R=1.135


//---------------------------------------------------------// ---------AB
//      	     Transformer at bus 1006
//---------------------------------------------------------//
! A single-phase transformer, its voltage rating equals the line-to-line nominal voltage.
New Transformer.T_1006 Phases=2 Windings=2 XHL=2.1
~ wdg=1 bus=bus1006.1.2     conn=delta kV=13.8  kva=75 %R=0.5
~ wdg=2 bus=T_bus1006_L.1.2 conn=delta kV=0.208 kva=75 %R=0.5


//---------------------------------------------------------// ---------AB
//      	     Transformer at bus 1007
//---------------------------------------------------------//

New Transformer.T_1007 Phases=2 Windings=2 XHL=1.88
~ wdg=1 bus=bus1007.1.2     conn=delta kV=13.8  kva=25 %R=0.665
~ wdg=2 bus=T_bus1007_L.1.2 conn=delta kV=0.208 kva=25 %R=0.665


//---------------------------------------------------------//
//      	     Transformer at bus 1008
//---------------------------------------------------------//

New Transformer.T_1008 Phases=3 Windings=2 XHL=1.73
~ wdg=1 bus=bus1008.1.2.3.0     conn=wye kV=13.8  kva=45 %R=1.26
~ wdg=2 bus=T_bus1008_L.1.2.3.0 conn=wye kV=0.208 kva=45 %R=1.26


//---------------------------------------------------------//
//      	     Transformer at bus 1009
//---------------------------------------------------------//

New Transformer.T_1009 Phases=3 Windings=2 XHL=1.91
~ wdg=1 bus=bus1009.1.2.3.0     conn=wye kV=13.8  kva=75 %R=1.135
~ wdg=2 bus=T_bus1009_L.1.2.3.0 conn=wye kV=0.208 kva=75 %R=1.135


//---------------------------------------------------------//
//      	     Transformer at bus 1010
//---------------------------------------------------------//

New Transformer.T_1010 Phases=3 Windings=2 XHL=1.73
~ wdg=1 bus=bus1010.1.2.3.0     conn=wye kV=13.8  kva=45 %R=1.26
~ wdg=2 bus=T_bus1010_L.1.2.3.0 conn=wye kV=0.208 kva=45 %R=1.26



//---------------------------------------------------------//  ------------- A
//      	     Transformer at bus 1011
//---------------------------------------------------------//

New Transformer.T_1011 Phases=1 Windings=3 XHL=2.256  XHT=2.256  XLT=1.504  
! Single-phase center-tapped transformer name, number of phses, number of windings, percent reactance high-to-low, percent reactance high-to-tertiary, percent reactance low-to-tertiary
~ wdg=1 bus=bus1011.1.0     conn=wye kV=7.9677    kva=25 %R=0.665  ! Winding number, bus, connection, kV rating, kVA rating, percent resistance
~ wdg=2 bus=T_bus1011_L.1.0 conn=wye kV=0.120     kva=25 %R=1.33 
~ wdg=3 bus=T_bus1011_L.0.2 conn=wye kV=0.120     kva=25 %R=1.33 


//---------------------------------------------------------//  ------------- B
//      	     Transformer at bus 1012
//---------------------------------------------------------//

New Transformer.T_1012 Phases=1 Windings=3 XHL=2.076  XHT=2.076  XLT=1.384 
~ wdg=1 bus=bus1012.2.0     conn=wye kV=7.9677    kva=37.5 %R=0.595
~ wdg=2 bus=T_bus1012_L.1.0 conn=wye kV=0.120     kva=37.5 %R=1.19
~ wdg=3 bus=T_bus1012_L.0.2 conn=wye kV=0.120     kva=37.5 %R=1.19


//---------------------------------------------------------//
//      	     Transformer at bus 1013
//---------------------------------------------------------//

New Transformer.T_1013 Phases=3 Windings=2 XHL=1.73
~ wdg=1 bus=bus1013.1.2.3.0     conn=wye kV=13.8  kva=45 %R=1.26
~ wdg=2 bus=T_bus1013_L.1.2.3.0 conn=wye kV=0.208 kva=45 %R=1.26



//---------------------------------------------------------//  ------------- B
//      	     Transformer at bus 1014
//---------------------------------------------------------//

New Transformer.T_1014 Phases=1 Windings=3 XHL=2.256  XHT=2.256  XLT=1.504 
~ wdg=1 bus=bus1014.2.0     conn=wye kV=7.9677    kva=25 %R=0.665
~ wdg=2 bus=T_bus1014_L.1.0 conn=wye kV=0.120     kva=25 %R=1.33 
~ wdg=3 bus=T_bus1014_L.0.2 conn=wye kV=0.120     kva=25 %R=1.33 



//---------------------------------------------------------//  ------------- B
//      	     Transformer at bus 1015
//---------------------------------------------------------//

New Transformer.T_1015 Phases=1 Windings=3 XHL=2.256  XHT=2.256  XLT=1.504 
~ wdg=1 bus=bus1015.2.0     conn=wye kV=7.9677    kva=25 %R=0.665
~ wdg=2 bus=T_bus1015_L.1.0 conn=wye kV=0.120     kva=25 %R=1.33 
~ wdg=3 bus=T_bus1015_L.0.2 conn=wye kV=0.120     kva=25 %R=1.33 



//---------------------------------------------------------//  -------------C
//      	     Transformer at bus 1016
//---------------------------------------------------------//

New Transformer.T_1016 Phases=1 Windings=3 XHL=2.16  XHT=2.16  XLT=1.44
~ wdg=1 bus=bus1016.3.0     conn=wye kV=7.9677    kva=50 %R=0.55
~ wdg=2 bus=T_bus1016_L.1.0 conn=wye kV=0.120     kva=50 %R=1.1
~ wdg=3 bus=T_bus1016_L.0.2 conn=wye kV=0.120     kva=50 %R=1.1



//---------------------------------------------------------//  ------------- C
//      	     Transformer at bus 1017
//---------------------------------------------------------//

New Transformer.T_1017 Phases=1 Windings=3 XHL=2.076  XHT=2.076  XLT=1.384
~ wdg=1 bus=bus1017.3.0     conn=wye kV=7.9677    kva=37.5 %R=0.595
~ wdg=2 bus=T_bus1017_L.1.0 conn=wye kV=0.120     kva=37.5 %R=1.19
~ wdg=3 bus=T_bus1017_L.0.2 conn=wye kV=0.120     kva=37.5 %R=1.19






//***************************************************************************************//
//                                             Feeder B
//***************************************************************************************//
//---------------------------------------------------------// 
//      	     Transformer at bus 2002
//---------------------------------------------------------//

New Transformer.T_2002 Phases=3 Windings=2 XHL=4.5
~ wdg=1 bus=bus2002.1.2.3     conn=wye   kV=13.8   kva=300 %R=0.9
~ wdg=2 bus=T_bus2002_L.1.2.3 conn=wye   kV=0.208  kva=300 %R=0.9


//---------------------------------------------------------//  
//      	     Transformer at bus 2003
//---------------------------------------------------------//

New Transformer.T_2003 Phases=3 Windings=2 XHL=1.91
~ wdg=1 bus=bus2003.1.2.3.0     conn=wye kV=13.8  kva=75 %R=1.135
~ wdg=2 bus=T_bus2003_L.1.2.3.0 conn=wye kV=0.208 kva=75 %R=1.135



//---------------------------------------------------------//  
//      	     Transformer at bus 2005
//---------------------------------------------------------//

New Transformer.T_2005 Phases=3 Windings=2 XHL=1.73
~ wdg=1 bus=bus2005.1.2.3.0     conn=wye kV=13.8  kva=45 %R=1.26
~ wdg=2 bus=T_bus2005_L.1.2.3.0 conn=wye kV=0.208 kva=45 %R=1.26



//---------------------------------------------------------//  ------------- A
//      	     Transformer at bus 2008
//---------------------------------------------------------//

New Transformer.T_2008 Phases=1 Windings=3 XHL=2.256  XHT=2.256  XLT=1.504
~ wdg=1 bus=bus2008.1.0     conn=wye kV=7.9677    kva=25 %R=0.665
~ wdg=2 bus=T_bus2008_L.1.0 conn=wye kV=0.120     kva=25 %R=1.33 
~ wdg=3 bus=T_bus2008_L.0.2 conn=wye kV=0.120     kva=25 %R=1.33 



//---------------------------------------------------------//  ------------- A
//      	     Transformer at bus 2009
//---------------------------------------------------------//

New Transformer.T_2009 Phases=1 Windings=3 XHL=2.256  XHT=2.256  XLT=1.504
~ wdg=1 bus=bus2009.1.0     conn=wye kV=7.9677    kva=25 %R=0.665
~ wdg=2 bus=T_bus2009_L.1.0 conn=wye kV=0.120     kva=25 %R=1.33 
~ wdg=3 bus=T_bus2009_L.0.2 conn=wye kV=0.120     kva=25 %R=1.33 


//---------------------------------------------------------//  
//      	     Transformer at bus 2010
//---------------------------------------------------------//

New Transformer.T_2010 Phases=3 Windings=2 XHL=1.73
~ wdg=1 bus=bus2010.1.2.3.0     conn=wye kV=13.8  kva=45 %R=1.26
~ wdg=2 bus=T_bus2010_L.1.2.3.0 conn=wye kV=0.208 kva=45 %R=1.26


//---------------------------------------------------------//  
//      	     Transformer at bus 2011
//---------------------------------------------------------//

New Transformer.T_2011 Phases=3 Windings=2 XHL=1.73
~ wdg=1 bus=bus2011.1.2.3.0     conn=wye kV=13.8  kva=45 %R=1.26
~ wdg=2 bus=T_bus2011_L.1.2.3.0 conn=wye kV=0.208 kva=45 %R=1.26



//---------------------------------------------------------//  ------------- B
//      	     Transformer at bus 2014
//---------------------------------------------------------//

New Transformer.T_2014 Phases=1 Windings=3 XHL=2.076  XHT=2.076  XLT=1.384
~ wdg=1 bus=bus2014.2.0     conn=wye kV=7.9677    kva=37.5 %R=0.595
~ wdg=2 bus=T_bus2014_L.1.0 conn=wye kV=0.120     kva=37.5 %R=1.19
~ wdg=3 bus=T_bus2014_L.0.2 conn=wye kV=0.120     kva=37.5 %R=1.19



//---------------------------------------------------------//  ------------- B
//      	     Transformer at bus 2015
//---------------------------------------------------------//

New Transformer.T_2015 Phases=1 Windings=3 XHL=2.256  XHT=2.256  XLT=1.504
~ wdg=1 bus=bus2015.2.0     conn=wye kV=7.9677    kva=25 %R=0.665
~ wdg=2 bus=T_bus2015_L.1.0 conn=wye kV=0.120     kva=25 %R=1.33 
~ wdg=3 bus=T_bus2015_L.0.2 conn=wye kV=0.120     kva=25 %R=1.33 



//---------------------------------------------------------//  ------------- B
//      	     Transformer at bus 2016
//---------------------------------------------------------//


New Transformer.T_2016 Phases=1 Windings=3 XHL=2.256  XHT=2.256  XLT=1.504
~ wdg=1 bus=bus2016.2.0     conn=wye kV=7.9677    kva=25 %R=0.665
~ wdg=2 bus=T_bus2016_L.1.0 conn=wye kV=0.120     kva=25 %R=1.33 
~ wdg=3 bus=T_bus2016_L.0.2 conn=wye kV=0.120     kva=25 %R=1.33 



//---------------------------------------------------------//  ------------- B
//      	     Transformer at bus 2017
//---------------------------------------------------------//

New Transformer.T_2017 Phases=1 Windings=3 XHL=2.256  XHT=2.256  XLT=1.504
~ wdg=1 bus=bus2017.2.0     conn=wye kV=7.9677    kva=25 %R=0.665
~ wdg=2 bus=T_bus2017_L.1.0 conn=wye kV=0.120     kva=25 %R=1.33 
~ wdg=3 bus=T_bus2017_L.0.2 conn=wye kV=0.120     kva=25 %R=1.33 



//---------------------------------------------------------//  ------------- B
//      	     Transformer at bus 2018
//---------------------------------------------------------//

New Transformer.T_2018 Phases=1 Windings=3 XHL=2.256  XHT=2.256  XLT=1.504
~ wdg=1 bus=bus2018.2.0     conn=wye kV=7.9677    kva=25 %R=0.665
~ wdg=2 bus=T_bus2018_L.1.0 conn=wye kV=0.120     kva=25 %R=1.33 
~ wdg=3 bus=T_bus2018_L.0.2 conn=wye kV=0.120     kva=25 %R=1.33 



//---------------------------------------------------------//  ------------- B
//      	     Transformer at bus 2020
//---------------------------------------------------------//

New Transformer.T_2020 Phases=1 Windings=3 XHL=2.256  XHT=2.256  XLT=1.504
~ wdg=1 bus=bus2020.2.0     conn=wye kV=7.9677    kva=25 %R=0.665
~ wdg=2 bus=T_bus2020_L.1.0 conn=wye kV=0.120     kva=25 %R=1.33 
~ wdg=3 bus=T_bus2020_L.0.2 conn=wye kV=0.120     kva=25 %R=1.33 



//---------------------------------------------------------//  ------------- C
//      	     Transformer at bus 2022
//---------------------------------------------------------//

New Transformer.T_2022 Phases=1 Windings=3 XHL=2.256  XHT=2.256  XLT=1.504
~ wdg=1 bus=bus2022.3.0     conn=wye kV=7.9677    kva=25 %R=0.665
~ wdg=2 bus=T_bus2022_L.1.0 conn=wye kV=0.120     kva=25 %R=1.33 
~ wdg=3 bus=T_bus2022_L.0.2 conn=wye kV=0.120     kva=25 %R=1.33 



//---------------------------------------------------------//  ------------- C
//      	     Transformer at bus 2023
//---------------------------------------------------------//

New Transformer.T_2023 Phases=1 Windings=3 XHL=1.536  XHT=1.536  XLT=1.024
~ wdg=1 bus=bus2023.3.0     conn=wye kV=7.9677    kva=15 %R=0.83
~ wdg=2 bus=T_bus2023_L.1.0 conn=wye kV=0.120     kva=15 %R=1.66
~ wdg=3 bus=T_bus2023_L.0.2 conn=wye kV=0.120     kva=15 %R=1.66



//---------------------------------------------------------//  ------------- C
//      	     Transformer at bus 2024
//---------------------------------------------------------//

New Transformer.T_2024 Phases=1 Windings=3 XHL=2.256  XHT=2.256  XLT=1.504
~ wdg=1 bus=bus2024.3.0     conn=wye kV=7.9677    kva=25 %R=0.665
~ wdg=2 bus=T_bus2024_L.1.0 conn=wye kV=0.120     kva=25 %R=1.33 
~ wdg=3 bus=T_bus2024_L.0.2 conn=wye kV=0.120     kva=25 %R=1.33 



//---------------------------------------------------------//  ------------- C
//      	     Transformer at bus 2025
//---------------------------------------------------------//

New Transformer.T_2025 Phases=1 Windings=3 XHL=2.256  XHT=2.256  XLT=1.504
~ wdg=1 bus=bus2025.3.0     conn=wye kV=7.9677    kva=25 %R=0.665
~ wdg=2 bus=T_bus2025_L.1.0 conn=wye kV=0.120     kva=25 %R=1.33 
~ wdg=3 bus=T_bus2025_L.0.2 conn=wye kV=0.120     kva=25 %R=1.33 



//---------------------------------------------------------//  ------------- A
//      	     Transformer at bus 2028
//---------------------------------------------------------//

New Transformer.T_2028 Phases=1 Windings=3 XHL=2.256  XHT=2.256  XLT=1.504
~ wdg=1 bus=bus2028.1.0     conn=wye kV=7.9677    kva=25 %R=0.665
~ wdg=2 bus=T_bus2028_L.1.0 conn=wye kV=0.120     kva=25 %R=1.33 
~ wdg=3 bus=T_bus2028_L.0.2 conn=wye kV=0.120     kva=25 %R=1.33 



//---------------------------------------------------------//  
//      	     Transformer at bus 2029
//---------------------------------------------------------//

New Transformer.T_2029 Phases=3 Windings=2 XHL=1.91
~ wdg=1 bus=bus2029.1.2.3.0     conn=wye kV=13.8  kva=75 %R=1.135
~ wdg=2 bus=T_bus2029_L.1.2.3.0 conn=wye kV=0.208 kva=75 %R=1.135


//---------------------------------------------------------//  
//      	     Transformer at bus 2030
//---------------------------------------------------------//

New Transformer.T_2030 Phases=3 Windings=2 XHL=1.91
~ wdg=1 bus=bus2030.1.2.3.0     conn=wye kV=13.8  kva=75 %R=1.135
~ wdg=2 bus=T_bus2030_L.1.2.3.0 conn=wye kV=0.208 kva=75 %R=1.135



//---------------------------------------------------------//  ------------- A
//      	     Transformer at bus 2031
//---------------------------------------------------------//

New Transformer.T_2031 Phases=1 Windings=3 XHL=2.256  XHT=2.256  XLT=1.504
~ wdg=1 bus=bus2031.1.0     conn=wye kV=7.9677    kva=25 %R=0.665
~ wdg=2 bus=T_bus2031_L.1.0 conn=wye kV=0.120     kva=25 %R=1.33 
~ wdg=3 bus=T_bus2031_L.0.2 conn=wye kV=0.120     kva=25 %R=1.33 



//---------------------------------------------------------//  
//      	     Transformer at bus 2032
//---------------------------------------------------------//

New Transformer.T_2032 Phases=3 Windings=2 XHL=1.73
~ wdg=1 bus=bus2032.1.2.3.0     conn=wye kV=13.8  kva=45 %R=1.26
~ wdg=2 bus=T_bus2032_L.1.2.3.0 conn=wye kV=0.208 kva=45 %R=1.26



//---------------------------------------------------------//  
//      	     Transformer at bus 2034
//---------------------------------------------------------//

New Transformer.T_2034 Phases=3 Windings=2 XHL=1.73
~ wdg=1 bus=bus2034.1.2.3.0     conn=wye kV=13.8  kva=45 %R=1.26
~ wdg=2 bus=T_bus2034_L.1.2.3.0 conn=wye kV=0.208 kva=45 %R=1.26



//---------------------------------------------------------//  
//      	     Transformer at bus 2035
//---------------------------------------------------------//

New Transformer.T_2035 Phases=3 Windings=2 XHL=1.91
~ wdg=1 bus=bus2035.1.2.3.0     conn=wye kV=13.8  kva=75 %R=1.135
~ wdg=2 bus=T_bus2035_L.1.2.3.0 conn=wye kV=0.208 kva=75 %R=1.135



//---------------------------------------------------------//  
//      	     Transformer at bus 2037
//---------------------------------------------------------//

New Transformer.T_2037 Phases=3 Windings=2 XHL=1.73
~ wdg=1 bus=bus2037.1.2.3.0     conn=wye kV=13.8  kva=45 %R=1.26
~ wdg=2 bus=T_bus2037_L.1.2.3.0 conn=wye kV=0.208 kva=45 %R=1.26



//---------------------------------------------------------//  
//      	     Transformer at bus 2040
//---------------------------------------------------------//

New Transformer.T_2040 Phases=3 Windings=2 XHL=4.5
~ wdg=1 bus=bus2040.1.2.3.0     conn=wye kV=13.8  kva=300 %R=0.9
~ wdg=2 bus=T_bus2040_L.1.2.3.0 conn=wye kV=0.208 kva=300 %R=0.9



//---------------------------------------------------------//  
//      	     Transformer at bus 2041
//---------------------------------------------------------//

New Transformer.T_2041 Phases=3 Windings=2 XHL=1.73
~ wdg=1 bus=bus2041.1.2.3.0     conn=wye kV=13.8  kva=45 %R=1.26
~ wdg=2 bus=T_bus2041_L.1.2.3.0 conn=wye kV=0.208 kva=45 %R=1.26



//---------------------------------------------------------//  
//      	     Transformer at bus 2042
//---------------------------------------------------------//

New Transformer.T_2042 Phases=3 Windings=2 XHL=1.91
~ wdg=1 bus=bus2042.1.2.3.0     conn=wye kV=13.8  kva=75 %R=1.135
~ wdg=2 bus=T_bus2042_L.1.2.3.0 conn=wye kV=0.208 kva=75 %R=1.135



//---------------------------------------------------------//  
//      	     Transformer at bus 2043
//---------------------------------------------------------//

New Transformer.T_2043 Phases=3 Windings=2 XHL=1.91
~ wdg=1 bus=bus2043.1.2.3.0     conn=wye kV=13.8  kva=75 %R=1.135
~ wdg=2 bus=T_bus2043_L.1.2.3.0 conn=wye kV=0.208 kva=75 %R=1.135



//---------------------------------------------------------//  ------------- B
//      	     Transformer at bus 2045
//---------------------------------------------------------//

New Transformer.T_2045 Phases=1 Windings=3 XHL=1.536  XHT=1.536  XLT=1.024
~ wdg=1 bus=bus2045.2.0     conn=wye kV=7.9677    kva=15 %R=0.83
~ wdg=2 bus=T_bus2045_L.1.0 conn=wye kV=0.120     kva=15 %R=1.66
~ wdg=3 bus=T_bus2045_L.0.2 conn=wye kV=0.120     kva=15 %R=1.66



//---------------------------------------------------------//  ------------- B
//      	     Transformer at bus 2046
//---------------------------------------------------------//

New Transformer.T_2046 Phases=1 Windings=3 XHL=2.16  XHT=2.16  XLT=1.44
~ wdg=1 bus=bus2046.2.0     conn=wye kV=7.9677    kva=50 %R=0.55
~ wdg=2 bus=T_bus2046_L.1.0 conn=wye kV=0.120     kva=50 %R=1.1
~ wdg=3 bus=T_bus2046_L.0.2 conn=wye kV=0.120     kva=50 %R=1.1



//---------------------------------------------------------//  ------------- B
//      	     Transformer at bus 2047
//---------------------------------------------------------//

New Transformer.T_2047 Phases=1 Windings=3 XHL=2.16  XHT=2.16  XLT=1.44
~ wdg=1 bus=bus2047.2.0     conn=wye kV=7.9677    kva=50 %R=0.55
~ wdg=2 bus=T_bus2047_L.1.0 conn=wye kV=0.120     kva=50 %R=1.1
~ wdg=3 bus=T_bus2047_L.0.2 conn=wye kV=0.120     kva=50 %R=1.1



//---------------------------------------------------------//  ------------- B
//      	     Transformer at bus 2048
//---------------------------------------------------------//

New Transformer.T_2048 Phases=1 Windings=3 XHL=2.16  XHT=2.16  XLT=1.44
~ wdg=1 bus=bus2048.2.0     conn=wye kV=7.9677    kva=50 %R=0.55
~ wdg=2 bus=T_bus2048_L.1.0 conn=wye kV=0.120     kva=50 %R=1.1
~ wdg=3 bus=T_bus2048_L.0.2 conn=wye kV=0.120     kva=50 %R=1.1




//---------------------------------------------------------//  ------------- C
//      	     Transformer at bus 2049
//---------------------------------------------------------//

New Transformer.T_2049 Phases=1 Windings=3 XHL=2.076  XHT=2.076  XLT=1.384
~ wdg=1 bus=bus2049.3.0     conn=wye kV=7.9677    kva=37.5 %R=0.595
~ wdg=2 bus=T_bus2049_L.1.0 conn=wye kV=0.120     kva=37.5 %R=1.19
~ wdg=3 bus=T_bus2049_L.0.2 conn=wye kV=0.120     kva=37.5 %R=1.19



//---------------------------------------------------------//  ------------- C
//      	     Transformer at bus 2050
//---------------------------------------------------------//

New Transformer.T_2050 Phases=1 Windings=3 XHL=2.076  XHT=2.076  XLT=1.384
~ wdg=1 bus=bus2050.3.0     conn=wye kV=7.9677    kva=37.5 %R=0.595
~ wdg=2 bus=T_bus2050_L.1.0 conn=wye kV=0.120     kva=37.5 %R=1.19
~ wdg=3 bus=T_bus2050_L.0.2 conn=wye kV=0.120     kva=37.5 %R=1.19



//---------------------------------------------------------//  ------------- C
//      	     Transformer bus 2051
//---------------------------------------------------------//

New Transformer.T_2051 Phases=1 Windings=3 XHL=2.076  XHT=2.076  XLT=1.384
~ wdg=1 bus=bus2051.3.0     conn=wye kV=7.9677    kva=37.5 %R=0.595
~ wdg=2 bus=T_bus2051_L.1.0 conn=wye kV=0.120     kva=37.5 %R=1.19
~ wdg=3 bus=T_bus2051_L.0.2 conn=wye kV=0.120     kva=37.5 %R=1.19



//---------------------------------------------------------//  
//      	     Transformer at bus 2052
//---------------------------------------------------------//

New Transformer.T_2052 Phases=3 Windings=2 XHL=4.65
~ wdg=1 bus=bus2052.1.2.3.0     conn=wye kV=13.8  kva=225 %R=1.1
~ wdg=2 bus=T_bus2052_L.1.2.3.0 conn=wye kV=0.208 kva=225 %R=1.1




//---------------------------------------------------------//  
//      	     Transformer at bus 2053
//---------------------------------------------------------//

New Transformer.T_2053 Phases=3 Windings=2 XHL=4.65
~ wdg=1 bus=bus2053.1.2.3.0     conn=wye kV=13.8  kva=225 %R=1.1
~ wdg=2 bus=T_bus2053_L.1.2.3.0 conn=wye kV=0.208 kva=225 %R=1.1




//---------------------------------------------------------//  ------------- A
//      	     Transformer at bus 2054
//---------------------------------------------------------//

New Transformer.T_2054 Phases=1 Windings=3 XHL=2.076  XHT=2.076  XLT=1.384
~ wdg=1 bus=bus2054.1.0     conn=wye kV=7.9677    kva=37.5 %R=0.595
~ wdg=2 bus=T_bus2054_L.1.0 conn=wye kV=0.120     kva=37.5 %R=1.19
~ wdg=3 bus=T_bus2054_L.0.2 conn=wye kV=0.120     kva=37.5 %R=1.19




//---------------------------------------------------------//  ------------- A
//      	     Transformer at bus 2055
//---------------------------------------------------------//

New Transformer.T_2055 Phases=1 Windings=3 XHL=2.16  XHT=2.16  XLT=1.44
~ wdg=1 bus=bus2055.1.0     conn=wye kV=7.9677    kva=50 %R=0.55
~ wdg=2 bus=T_bus2055_L.1.0 conn=wye kV=0.120     kva=50 %R=1.1
~ wdg=3 bus=T_bus2055_L.0.2 conn=wye kV=0.120     kva=50 %R=1.1




//---------------------------------------------------------//  ------------- A
//      	     Transformer at bus 2056
//---------------------------------------------------------//

New Transformer.T_2056 Phases=1 Windings=3 XHL=2.256  XHT=2.256  XLT=1.504
~ wdg=1 bus=bus2056.1.0     conn=wye kV=7.9677    kva=25 %R=0.665
~ wdg=2 bus=T_bus2056_L.1.0 conn=wye kV=0.120     kva=25 %R=1.33 
~ wdg=3 bus=T_bus2056_L.0.2 conn=wye kV=0.120     kva=25 %R=1.33 



//---------------------------------------------------------//  
//      	     Transformer at bus 2058
//---------------------------------------------------------//

New Transformer.T_2058 Phases=3 Windings=2 XHL=4.5
~ wdg=1 bus=bus2058.1.2.3.0     conn=wye kV=13.8  kva=300 %R=0.9
~ wdg=2 bus=T_bus2058_L.1.2.3.0 conn=wye kV=0.208 kva=300 %R=0.9



//---------------------------------------------------------//  ------------- B
//      	     Transformer at bus 2059
//---------------------------------------------------------//

New Transformer.T_2059 Phases=1 Windings=3 XHL=2.256  XHT=2.256  XLT=1.504
~ wdg=1 bus=bus2059.2.0     conn=wye kV=7.9677    kva=25 %R=0.665
~ wdg=2 bus=T_bus2059_L.1.0 conn=wye kV=0.120     kva=25 %R=1.33 
~ wdg=3 bus=T_bus2059_L.0.2 conn=wye kV=0.120     kva=25 %R=1.33 



//---------------------------------------------------------//  ------------- B
//      	     Transformer at bus 2060
//---------------------------------------------------------//

New Transformer.T_2060 Phases=1 Windings=3 XHL=2.256  XHT=2.256  XLT=1.504
~ wdg=1 bus=bus2060.2.0     conn=wye kV=7.9677    kva=25 %R=0.665
~ wdg=2 bus=T_bus2060_L.1.0 conn=wye kV=0.120     kva=25 %R=1.33 
~ wdg=3 bus=T_bus2060_L.0.2 conn=wye kV=0.120     kva=25 %R=1.33 








//***************************************************************************************//
//                                             Feeder C
//***************************************************************************************//
//---------------------------------------------------------//  
//      	     Transformer at bus 3002
//---------------------------------------------------------//

New Transformer.T_3002 Phases=3 Windings=2 XHL=1.73
~ wdg=1 bus=bus3002.1.2.3.0     conn=wye kV=13.8  kva=45 %R=1.26
~ wdg=2 bus=T_bus3002_L.1.2.3.0 conn=wye kV=0.208 kva=45 %R=1.26


//---------------------------------------------------------//  
//      	     Transformer at bus 3004
//---------------------------------------------------------//

New Transformer.T_3004 Phases=3 Windings=2 XHL=1.73
~ wdg=1 bus=bus3004.1.2.3.0     conn=wye kV=13.8  kva=45 %R=1.26
~ wdg=2 bus=T_bus3004_L.1.2.3.0 conn=wye kV=0.208 kva=45 %R=1.26


//---------------------------------------------------------//  
//      	     Transformer at bus 3006
//---------------------------------------------------------//

New Transformer.T_3006 Phases=3 Windings=2 XHL=1.73
~ wdg=1 bus=bus3006.1.2.3.0     conn=wye kV=13.8  kva=45 %R=1.26
~ wdg=2 bus=T_bus3006_L.1.2.3.0 conn=wye kV=0.208 kva=45 %R=1.26


//---------------------------------------------------------//  
//      	     Transformer at bus 3007
//---------------------------------------------------------//

New Transformer.T_3007 Phases=3 Windings=2 XHL=1.91
~ wdg=1 bus=bus3007.1.2.3.0     conn=wye kV=13.8  kva=75 %R=1.135
~ wdg=2 bus=T_bus3007_L.1.2.3.0 conn=wye kV=0.208 kva=75 %R=1.135


//---------------------------------------------------------//  ------------- A
//      	     Transformer at bus 3009
//---------------------------------------------------------//

New Transformer.T_3009 Phases=1 Windings=3 XHL=2.076  XHT=2.076  XLT=1.384
~ wdg=1 bus=bus3009.1.0     conn=wye kV=7.9677    kva=37.5 %R=0.595
~ wdg=2 bus=T_bus3009_L.1.0 conn=wye kV=0.120     kva=37.5 %R=1.19
~ wdg=3 bus=T_bus3009_L.0.2 conn=wye kV=0.120     kva=37.5 %R=1.19



//---------------------------------------------------------//  ------------- A
//      	     Transformer at bus 3010
//---------------------------------------------------------//

New Transformer.T_3010 Phases=1 Windings=3 XHL=2.076  XHT=2.076  XLT=1.384
~ wdg=1 bus=bus3010.1.0     conn=wye kV=7.9677    kva=37.5 %R=0.595
~ wdg=2 bus=T_bus3010_L.1.0 conn=wye kV=0.120     kva=37.5 %R=1.19
~ wdg=3 bus=T_bus3010_L.0.2 conn=wye kV=0.120     kva=37.5 %R=1.19



//---------------------------------------------------------//  ------------- A
//      	     Transformer at bus 3011
//---------------------------------------------------------//

New Transformer.T_3011 Phases=1 Windings=3 XHL=2.076  XHT=2.076  XLT=1.384
~ wdg=1 bus=bus3011.1.0     conn=wye kV=7.9677    kva=37.5 %R=0.595
~ wdg=2 bus=T_bus3011_L.1.0 conn=wye kV=0.120     kva=37.5 %R=1.19
~ wdg=3 bus=T_bus3011_L.0.2 conn=wye kV=0.120     kva=37.5 %R=1.19



//---------------------------------------------------------//  ------------- A
//      	     Transformer at bus 3012
//---------------------------------------------------------//

New Transformer.T_3012 Phases=1 Windings=3 XHL=2.16  XHT=2.16  XLT=1.44
~ wdg=1 bus=bus3012.1.0     conn=wye kV=7.9677    kva=50 %R=0.55
~ wdg=2 bus=T_bus3012_L.1.0 conn=wye kV=0.120     kva=50 %R=1.1
~ wdg=3 bus=T_bus3012_L.0.2 conn=wye kV=0.120     kva=50 %R=1.1




//---------------------------------------------------------//  ------------- B
//      	     Transformer at bus 3013
//---------------------------------------------------------//

New Transformer.T_3013 Phases=1 Windings=3 XHL=2.256  XHT=2.256  XLT=1.504
~ wdg=1 bus=bus3013.2.0     conn=wye kV=7.9677    kva=25 %R=0.665
~ wdg=2 bus=T_bus3013_L.1.0 conn=wye kV=0.120     kva=25 %R=1.33 
~ wdg=3 bus=T_bus3013_L.0.2 conn=wye kV=0.120     kva=25 %R=1.33 



//---------------------------------------------------------//  ------------- B
//      	     Transformer at bus 3014
//---------------------------------------------------------//

New Transformer.T_3014 Phases=1 Windings=3 XHL=2.076  XHT=2.076  XLT=1.384
~ wdg=1 bus=bus3014.2.0     conn=wye kV=7.9677    kva=37.5 %R=0.595
~ wdg=2 bus=T_bus3014_L.1.0 conn=wye kV=0.120     kva=37.5 %R=1.19
~ wdg=3 bus=T_bus3014_L.0.2 conn=wye kV=0.120     kva=37.5 %R=1.19



//---------------------------------------------------------//  ------------- B
//      	     Transformer at bus 3016
//---------------------------------------------------------//

New Transformer.T_3016 Phases=1 Windings=3 XHL=2.076  XHT=2.076  XLT=1.384
~ wdg=1 bus=bus3016.2.0     conn=wye kV=7.9677    kva=37.5 %R=0.595